5

 C            0.0727370155       -0.0000000000       -0.0291877493
 O           -0.1456267752       -0.0000000000        2.6270985861
 O            2.1444396318        0.0000000000       -1.1855528676
 H            1.7000920164        0.0000000000        3.1752151692
 H           -1.8649083669        0.0000000000       -0.8799307507